/*--------------------------------*- C++ -*----------------------------------*\
| =========                 |                                                 |
| \\      /  F ield         | OpenFOAM: The Open Source CFD Toolbox           |
|  \\    /   O peration     | Version:  v2312                                 |
|   \\  /    A nd           | Website:  www.openfoam.com                      |
|    \\/     M anipulation  |                                                 |
\*---------------------------------------------------------------------------*/
FoamFile
{
    version     2.0;
    format      ascii;
    class       dictionary;
    object      fvSolution;
}
// * * * * * * * * * * * * * * * * * * * * * * * * * * * * * * * * * * * * * //

solvers
{
    p
{
    solver          GAMG;
    tolerance       1e-07;        
    relTol          0;
    smoother        GaussSeidel;  
    nPreSweeps      2;
    nPostSweeps     2;
    nFinestSweeps   2;
    cacheAgglomeration true;
    nCellsInCoarsestLevel 100;
    mergeLevels     1;
}

    pFinal
    {
        $p;
        tolerance       1e-07;
        relTol          0;
    }

    "(k|epsilon)"
    {
        solver          PBiCGStab;
        preconditioner  DILU;
        tolerance       1e-6;
        relTol          0.1;
    }

    "(k|epsilon)Final"
    {
        solver          PBiCGStab;
        preconditioner  DILU;
        tolerance       1e-6;
        relTol          0;
    }

    U
    {
        solver          smoothSolver;
        smoother        GaussSeidel;
        tolerance       1e-06;
        relTol          0;
    }

    UFinal
    {
        $U;
        tolerance       1e-06;
        relTol          0;
    }
}

PIMPLE
{
    momentumPredictor   yes;
    correctPhi          no;
    nOuterCorrectors    1;
    nCorrectors         3;
    nNonOrthogonalCorrectors 2;
}

relaxationFactors
{
    equations
    {
         ".*"       1;
    }
}


// ************************************************************************* //
